LAMMPS (10 Sep 2025)
processors    * * *

# global model settings
units          real
boundary	     p p p
atom_style     full
bond_style	   harmonic
angle_style    harmonic

# cuttof de 13
pair_style      lj/cut 13

# lj parameters
variable	Ctype	  equal 1

# box
read_data	in.lmp
Reading data file ...
  triclinic box = (-15 -15 -15) to (15 15 15) with tilt (0 0 0)
  reading atoms ...
  27 atoms
  scanning bonds ...
  triclinic box = (-15 -15 -15) to (15 15 15) with tilt (0 0 0)
  reading bonds ...
  81 bonds
Finding 1-2 1-3 1-4 neighbors ...
     6 = max # of 1-2 neighbors
    30 = max # of 1-3 neighbors
   180 = max # of 1-4 neighbors
    26 = max # of special neighbors
pair_coeff   1    1      0.0      0.0
group	     carbon  type  1
27 atoms in group carbon
timestep        1         # integrate equations of motion every 1 fs
velocity         carbon create 300 191294 dist gaussian

# fluid thermostat -----------------------------------------------------------------
fix     fixtemp         carbon nvt temp 300 300 100   #apply a Nose Hoover thermostat from 300K to 300 K in 100 timesteps

# thermo + run ----------------------------------------------------------------
thermo_style   custom      step temp press pe ke etotal    # timestep zeolite_temperature pressure potential_energy kinetic_energy total_energy
thermo         100
dump           dmp carbon custom 10 dump.lammps   id type x y z vx vy vz    # print the informations of the zeolites every 10 timestep  : id_of_each_atom id_of_its_type xpos ypos zpos xvelo yvelo zvelo
run             100000   # run the code 10000 timestep = 10000 fs
Generated 0 of 0 mixed pair_coeff terms from geometric mixing rule
For more information see https://docs.lammps.org/err0027 (src/domain.cpp:1052)
Step          Temp          Press          PotEng         KinEng         TotEng
0   300            39.363888      0              23.250318      23.250318
Averages over the last 501 of 1001 rows, steps 50000 to 100000:
Temp Press PotEng KinEng TotEng
299.514 -2524.43 19.6438 23.2127 42.8564
Loop time of 1.40631 on 1 procs for 100000 steps with 27 atoms

write_data      end.lmp   #final configuration
System init for write_data ...
Generated 0 of 0 mixed pair_coeff terms from geometric mixing rule
